opendss/LVTestCase/data/PV/PV_683.txt
New generator.m_gen43 Phases=1 Bus1=780.3 kV=0.23 kW=1 PF=0.95 Yearly=NM_Shape_63
New generator.m_gen19 Phases=1 Bus1=342.3 kV=0.23 kW=1 PF=0.95 Yearly=NM_Shape_28
New generator.m_gen24 Phases=1 Bus1=458.3 kV=0.23 kW=1 PF=0.95 Yearly=NM_Shape_81
New generator.m_gen26 Phases=1 Bus1=522.2 kV=0.23 kW=1 PF=0.95 Yearly=NM_Shape_82
New generator.m_gen45 Phases=1 Bus1=813.2 kV=0.23 kW=1 PF=0.95 Yearly=NM_Shape_91
New generator.m_gen15 Phases=1 Bus1=314.2 kV=0.23 kW=1 PF=0.95 Yearly=NM_Shape_133
New generator.m_gen41 Phases=1 Bus1=755.2 kV=0.23 kW=1 PF=0.95 Yearly=NM_Shape_141
New generator.m_gen44 Phases=1 Bus1=785.2 kV=0.23 kW=1 PF=0.95 Yearly=NM_Shape_27
New generator.m_gen9 Phases=1 Bus1=225.1 kV=0.23 kW=1 PF=0.95 Yearly=NM_Shape_3
New generator.m_gen51 Phases=1 Bus1=896.1 kV=0.23 kW=1 PF=0.95 Yearly=NM_Shape_97
New generator.m_gen8 Phases=1 Bus1=208.3 kV=0.23 kW=1 PF=0.95 Yearly=NM_Shape_43
New generator.m_gen55 Phases=1 Bus1=906.1 kV=0.23 kW=1 PF=0.95 Yearly=NM_Shape_73
New generator.m_gen34 Phases=1 Bus1=629.1 kV=0.23 kW=1 PF=0.95 Yearly=NM_Shape_118
New generator.m_gen18 Phases=1 Bus1=337.3 kV=0.23 kW=1 PF=0.95 Yearly=PV_Shape_98
New generator.m_gen27 Phases=1 Bus1=539.3 kV=0.23 kW=1 PF=0.95 Yearly=NM_Shape_136
New generator.m_gen48 Phases=1 Bus1=860.1 kV=0.23 kW=1 PF=0.95 Yearly=PV_Shape_55
New generator.m_gen52 Phases=1 Bus1=898.1 kV=0.23 kW=1 PF=0.95 Yearly=NM_Shape_9
New generator.m_gen47 Phases=1 Bus1=835.3 kV=0.23 kW=1 PF=0.95 Yearly=NM_Shape_132
New generator.m_gen54 Phases=1 Bus1=900.1 kV=0.23 kW=1 PF=0.95 Yearly=NM_Shape_71
New generator.m_gen10 Phases=1 Bus1=248.2 kV=0.23 kW=1 PF=0.95 Yearly=NM_Shape_128
New generator.m_gen13 Phases=1 Bus1=276.2 kV=0.23 kW=1 PF=0.95 Yearly=PV_Shape_4
New generator.m_gen42 Phases=1 Bus1=778.3 kV=0.23 kW=1 PF=0.95 Yearly=PV_Shape_110
New generator.m_gen53 Phases=1 Bus1=899.2 kV=0.23 kW=1 PF=0.95 Yearly=NM_Shape_5
New generator.m_gen37 Phases=1 Bus1=682.2 kV=0.23 kW=1 PF=0.95 Yearly=NM_Shape_40
New generator.m_gen39 Phases=1 Bus1=701.3 kV=0.23 kW=1 PF=0.95 Yearly=PV_Shape_111
New generator.m_gen12 Phases=1 Bus1=264.3 kV=0.23 kW=1 PF=0.95 Yearly=NM_Shape_95
New generator.m_gen3 Phases=1 Bus1=70.1 kV=0.23 kW=1 PF=0.95 Yearly=NM_Shape_35
New generator.m_gen31 Phases=1 Bus1=611.1 kV=0.23 kW=1 PF=0.95 Yearly=PV_Shape_32
New generator.m_gen30 Phases=1 Bus1=563.1 kV=0.23 kW=1 PF=0.95 Yearly=NM_Shape_70
New generator.m_gen21 Phases=1 Bus1=387.1 kV=0.23 kW=1 PF=0.95 Yearly=NM_Shape_83
New generator.m_gen36 Phases=1 Bus1=676.2 kV=0.23 kW=1 PF=0.95 Yearly=PV_Shape_50
New generator.m_gen28 Phases=1 Bus1=556.3 kV=0.23 kW=1 PF=0.95 Yearly=PV_Shape_56
New generator.m_gen14 Phases=1 Bus1=289.1 kV=0.23 kW=1 PF=0.95 Yearly=NM_Shape_29
New generator.m_gen1 Phases=1 Bus1=34.1 kV=0.23 kW=1 PF=0.95 Yearly=PV_Shape_44
New generator.m_gen6 Phases=1 Bus1=83.2 kV=0.23 kW=1 PF=0.95 Yearly=NM_Shape_10
New generator.m_gen46 Phases=1 Bus1=817.1 kV=0.23 kW=1 PF=0.95 Yearly=PV_Shape_46
New generator.m_gen7 Phases=1 Bus1=178.2 kV=0.23 kW=1 PF=0.95 Yearly=PV_Shape_131
New generator.m_gen38 Phases=1 Bus1=688.2 kV=0.23 kW=1 PF=0.95 Yearly=PV_Shape_26
